/*--------------------------------*- C++ -*----------------------------------*\
| =========                 |                                                 |
| \\      /  F ield         | OpenFOAM: The Open Source CFD Toolbox           |
|  \\    /   O peration     | Version:  v1912                                 |
|   \\  /    A nd           | Website:  www.openfoam.com                      |
|    \\/     M anipulation  |                                                 |
\*---------------------------------------------------------------------------*/
FoamFile
{
    version     2.0;
    format      ascii;
    class       dictionary;
    location    "system";
    object      setExprFieldsDict;
}
// * * * * * * * * * * * * * * * * * * * * * * * * * * * * * * * * * * * * * //

expressions
(
    T
    {
        field       alpha.water;
        dimensions  [0 0 0 0 0 0 0];

        constants
        {
            centre1 (1 1 1);
        }

        variables
        (
            "radius = 0.5"
//          "speed = dist / time"
        );

        condition
        #{
            (mag(pos() - $[(vector)constants.centre1]) < radius)
            || (mag(pos() - $[(vector)constants.centre2]) < radius)
//          && pos((pos() - $[(vector)constants.centre]).y()) > 0
//          pos().y() < height + amplitude * sin(waves * pos().x() * 0.5 * pi())

        #};

        expression
        #{
		    1
//			1 - pos().y()
//			mag(pos() - $[(vector)constants.centre])
//			mag(pos().y() - $[(vector)constants.centre].y())
//          0.5 + 0.5 * (1 - mag(pos() - $[(vector)constants.centre]) / radius)
        #};
    }
);


// ************************************************************************* //
